
Version,
  22.1;                                   !- Version Identifier

Timestep,
  4;                                      !- Number of Timesteps per Hour

LifeCycleCost:Parameters,
  Life Cycle Cost Parameters,             !- Name
  EndOfYear,                              !- Discounting Convention
  ConstantDollar,                         !- Inflation Approach
  0.03,                                   !- Real Discount Rate
  ,                                       !- Nominal Discount Rate
  ,                                       !- Inflation
  ,                                       !- Base Date Month
  2011,                                   !- Base Date Year
  ,                                       !- Service Date Month
  2011,                                   !- Service Date Year
  25,                                     !- Length of Study Period in Years
  ,                                       !- Tax rate
  None;                                   !- Depreciation Method

LifeCycleCost:UsePriceEscalation,
  U.S. Avg  Commercial-Electricity,       !- Name
  Electricity,                            !- Resource
  2011,                                   !- Escalation Start Year
  January,                                !- Escalation Start Month
  0.9838,                                 !- Year Escalation 1
  0.9730,                                 !- Year Escalation 2
  0.9632,                                 !- Year Escalation 3
  0.9611,                                 !- Year Escalation 4
  0.9571,                                 !- Year Escalation 5
  0.9553,                                 !- Year Escalation 6
  0.9539,                                 !- Year Escalation 7
  0.9521,                                 !- Year Escalation 8
  0.9546,                                 !- Year Escalation 9
  0.9550,                                 !- Year Escalation 10
  0.9553,                                 !- Year Escalation 11
  0.9564,                                 !- Year Escalation 12
  0.9575,                                 !- Year Escalation 13
  0.9596,                                 !- Year Escalation 14
  0.9618,                                 !- Year Escalation 15
  0.9614,                                 !- Year Escalation 16
  0.9618,                                 !- Year Escalation 17
  0.9618,                                 !- Year Escalation 18
  0.9593,                                 !- Year Escalation 19
  0.9589,                                 !- Year Escalation 20
  0.9607,                                 !- Year Escalation 21
  0.9625,                                 !- Year Escalation 22
  0.9650,                                 !- Year Escalation 23
  0.9708,                                 !- Year Escalation 24
  0.9751,                                 !- Year Escalation 25
  0.9762,                                 !- Year Escalation 26
  0.9766,                                 !- Year Escalation 27
  0.9766,                                 !- Year Escalation 28
  0.9769,                                 !- Year Escalation 29
  0.9773;                                 !- Year Escalation 30

LifeCycleCost:UsePriceEscalation,
  U.S. Avg  Commercial-Distillate Oil,    !- Name
  FuelOilNo1,                             !- Resource
  2011,                                   !- Escalation Start Year
  January,                                !- Escalation Start Month
  0.9714,                                 !- Year Escalation 1
  0.9730,                                 !- Year Escalation 2
  0.9942,                                 !- Year Escalation 3
  1.0164,                                 !- Year Escalation 4
  1.0541,                                 !- Year Escalation 5
  1.0928,                                 !- Year Escalation 6
  1.1267,                                 !- Year Escalation 7
  1.1580,                                 !- Year Escalation 8
  1.1792,                                 !- Year Escalation 9
  1.1967,                                 !- Year Escalation 10
  1.2200,                                 !- Year Escalation 11
  1.2333,                                 !- Year Escalation 12
  1.2566,                                 !- Year Escalation 13
  1.2709,                                 !- Year Escalation 14
  1.2826,                                 !- Year Escalation 15
  1.2985,                                 !- Year Escalation 16
  1.3102,                                 !- Year Escalation 17
  1.3250,                                 !- Year Escalation 18
  1.3261,                                 !- Year Escalation 19
  1.3282,                                 !- Year Escalation 20
  1.3324,                                 !- Year Escalation 21
  1.3356,                                 !- Year Escalation 22
  1.3431,                                 !- Year Escalation 23
  1.3510,                                 !- Year Escalation 24
  1.3568,                                 !- Year Escalation 25
  1.3606,                                 !- Year Escalation 26
  1.3637,                                 !- Year Escalation 27
  1.3674,                                 !- Year Escalation 28
  1.3706,                                 !- Year Escalation 29
  1.3743;                                 !- Year Escalation 30

LifeCycleCost:UsePriceEscalation,
  U.S. Avg  Commercial-Residual Oil,      !- Name
  FuelOilNo2,                             !- Resource
  2011,                                   !- Escalation Start Year
  January,                                !- Escalation Start Month
  0.8469,                                 !- Year Escalation 1
  0.8257,                                 !- Year Escalation 2
  0.8681,                                 !- Year Escalation 3
  0.8988,                                 !- Year Escalation 4
  0.9289,                                 !- Year Escalation 5
  0.9604,                                 !- Year Escalation 6
  0.9897,                                 !- Year Escalation 7
  1.0075,                                 !- Year Escalation 8
  1.0314,                                 !- Year Escalation 9
  1.0554,                                 !- Year Escalation 10
  1.0861,                                 !- Year Escalation 11
  1.1278,                                 !- Year Escalation 12
  1.1497,                                 !- Year Escalation 13
  1.1620,                                 !- Year Escalation 14
  1.1743,                                 !- Year Escalation 15
  1.1852,                                 !- Year Escalation 16
  1.1948,                                 !- Year Escalation 17
  1.2037,                                 !- Year Escalation 18
  1.2071,                                 !- Year Escalation 19
  1.2119,                                 !- Year Escalation 20
  1.2139,                                 !- Year Escalation 21
  1.2194,                                 !- Year Escalation 22
  1.2276,                                 !- Year Escalation 23
  1.2365,                                 !- Year Escalation 24
  1.2420,                                 !- Year Escalation 25
  1.2461,                                 !- Year Escalation 26
  1.2509,                                 !- Year Escalation 27
  1.2550,                                 !- Year Escalation 28
  1.2591,                                 !- Year Escalation 29
  1.2638;                                 !- Year Escalation 30

LifeCycleCost:UsePriceEscalation,
  U.S. Avg  Commercial-Natural gas,       !- Name
  NaturalGas,                             !- Resource
  2011,                                   !- Escalation Start Year
  January,                                !- Escalation Start Month
  0.9823,                                 !- Year Escalation 1
  0.9557,                                 !- Year Escalation 2
  0.9279,                                 !- Year Escalation 3
  0.9257,                                 !- Year Escalation 4
  0.9346,                                 !- Year Escalation 5
  0.9412,                                 !- Year Escalation 6
  0.9512,                                 !- Year Escalation 7
  0.9645,                                 !- Year Escalation 8
  0.9856,                                 !- Year Escalation 9
  1.0067,                                 !- Year Escalation 10
  1.0222,                                 !- Year Escalation 11
  1.0410,                                 !- Year Escalation 12
  1.0610,                                 !- Year Escalation 13
  1.0787,                                 !- Year Escalation 14
  1.0942,                                 !- Year Escalation 15
  1.1098,                                 !- Year Escalation 16
  1.1220,                                 !- Year Escalation 17
  1.1308,                                 !- Year Escalation 18
  1.1386,                                 !- Year Escalation 19
  1.1486,                                 !- Year Escalation 20
  1.1619,                                 !- Year Escalation 21
  1.1763,                                 !- Year Escalation 22
  1.1918,                                 !- Year Escalation 23
  1.2118,                                 !- Year Escalation 24
  1.2284,                                 !- Year Escalation 25
  1.2439,                                 !- Year Escalation 26
  1.2605,                                 !- Year Escalation 27
  1.2772,                                 !- Year Escalation 28
  1.2938,                                 !- Year Escalation 29
  1.3115;                                 !- Year Escalation 30

LifeCycleCost:UsePriceEscalation,
  U.S. Avg  Commercial-Coal,              !- Name
  Coal,                                   !- Resource
  2011,                                   !- Escalation Start Year
  January,                                !- Escalation Start Month
  0.9970,                                 !- Year Escalation 1
  1.0089,                                 !- Year Escalation 2
  1.0089,                                 !- Year Escalation 3
  0.9941,                                 !- Year Escalation 4
  0.9941,                                 !- Year Escalation 5
  1.0000,                                 !- Year Escalation 6
  1.0030,                                 !- Year Escalation 7
  1.0059,                                 !- Year Escalation 8
  1.0089,                                 !- Year Escalation 9
  1.0119,                                 !- Year Escalation 10
  1.0148,                                 !- Year Escalation 11
  1.0178,                                 !- Year Escalation 12
  1.0208,                                 !- Year Escalation 13
  1.0267,                                 !- Year Escalation 14
  1.0297,                                 !- Year Escalation 15
  1.0356,                                 !- Year Escalation 16
  1.0415,                                 !- Year Escalation 17
  1.0534,                                 !- Year Escalation 18
  1.0564,                                 !- Year Escalation 19
  1.0593,                                 !- Year Escalation 20
  1.0653,                                 !- Year Escalation 21
  1.0712,                                 !- Year Escalation 22
  1.0742,                                 !- Year Escalation 23
  1.0801,                                 !- Year Escalation 24
  1.0831,                                 !- Year Escalation 25
  1.0831,                                 !- Year Escalation 26
  1.0861,                                 !- Year Escalation 27
  1.0890,                                 !- Year Escalation 28
  1.0920,                                 !- Year Escalation 29
  1.0950;                                 !- Year Escalation 30

Building,
  TopologicBuilding,                      !- Name
  30,                                     !- North Axis {deg}
  ,                                       !- Terrain
  0.04,                                   !- Loads Convergence Tolerance Value {W}
  0.4,                                    !- Temperature Convergence Tolerance Value {deltaC}
  FullExterior,                           !- Solar Distribution
  25,                                     !- Maximum Number of Warmup Days
  ;                                       !- Minimum Number of Warmup Days

Zone,
  Space 10_THERMAL_ZONE,                  !- Name
  0,                                      !- Direction of Relative North {deg}
  0,                                      !- X Origin {m}
  0,                                      !- Y Origin {m}
  0,                                      !- Z Origin {m}
  ,                                       !- Type
  1,                                      !- Multiplier
  ,                                       !- Ceiling Height {m}
  115.774819442511,                       !- Volume {m3}
  ,                                       !- Floor Area {m2}
  ,                                       !- Zone Inside Convection Algorithm
  ,                                       !- Zone Outside Convection Algorithm
  Yes;                                    !- Part of Total Floor Area

BuildingSurface:Detailed,
  Space 10_SURFACE_0,                     !- Name
  Floor,                                  !- Surface Type
  000 Interior Floor,                     !- Construction Name
  Space 10_THERMAL_ZONE,                  !- Zone Name
  ,                                       !- Space Name
  Surface,                                !- Outside Boundary Condition
  Space 15_SURFACE_5,                     !- Outside Boundary Condition Object
  NoSun,                                  !- Sun Exposure
  NoWind,                                 !- Wind Exposure
  ,                                       !- View Factor to Ground
  ,                                       !- Number of Vertices
  11.7761325836182, 0.0760006010532374, 6.22, !- X,Y,Z Vertex 1 {m}
  11.7761325836182, 8.22715759277344, 6.22, !- X,Y,Z Vertex 2 {m}
  6.64830350875857, 6.78277778625488, 6.22, !- X,Y,Z Vertex 3 {m}
  6.64830350875855, 0.965605318546294, 6.22, !- X,Y,Z Vertex 4 {m}
  6.64830350875855, -0.117895506322384, 6.22; !- X,Y,Z Vertex 5 {m}

BuildingSurface:Detailed,
  Space 10_SURFACE_1,                     !- Name
  Wall,                                   !- Surface Type
  000 Interior Wall,                      !- Construction Name
  Space 10_THERMAL_ZONE,                  !- Zone Name
  ,                                       !- Space Name
  Surface,                                !- Outside Boundary Condition
  Space 2_SURFACE_5,                      !- Outside Boundary Condition Object
  NoSun,                                  !- Sun Exposure
  NoWind,                                 !- Wind Exposure
  ,                                       !- View Factor to Ground
  ,                                       !- Number of Vertices
  6.64830350875855, -0.117895506322384, 6.22, !- X,Y,Z Vertex 1 {m}
  6.64830350875855, 0.965605318546294, 6.22, !- X,Y,Z Vertex 2 {m}
  6.64830350875854, 0.965605318546294, 3.22, !- X,Y,Z Vertex 3 {m}
  6.64830350875855, -0.117895506322385, 3.22; !- X,Y,Z Vertex 4 {m}

BuildingSurface:Detailed,
  Space 10_SURFACE_2,                     !- Name
  Wall,                                   !- Surface Type
  000 Interior Wall,                      !- Construction Name
  Space 10_THERMAL_ZONE,                  !- Zone Name
  ,                                       !- Space Name
  Surface,                                !- Outside Boundary Condition
  Space 11_SURFACE_1,                     !- Outside Boundary Condition Object
  NoSun,                                  !- Sun Exposure
  NoWind,                                 !- Wind Exposure
  ,                                       !- View Factor to Ground
  ,                                       !- Number of Vertices
  6.64830350875855, -0.117895506322385, 3.22, !- X,Y,Z Vertex 1 {m}
  11.7761325836182, 0.0760006010532368, 3.22, !- X,Y,Z Vertex 2 {m}
  11.7761325836182, 0.0760006010532374, 6.22, !- X,Y,Z Vertex 3 {m}
  6.64830350875855, -0.117895506322384, 6.22; !- X,Y,Z Vertex 4 {m}

BuildingSurface:Detailed,
  Space 10_SURFACE_3,                     !- Name
  Wall,                                   !- Surface Type
  000 Interior Wall,                      !- Construction Name
  Space 10_THERMAL_ZONE,                  !- Zone Name
  ,                                       !- Space Name
  Surface,                                !- Outside Boundary Condition
  Space 9_SURFACE_4,                      !- Outside Boundary Condition Object
  NoSun,                                  !- Sun Exposure
  NoWind,                                 !- Wind Exposure
  ,                                       !- View Factor to Ground
  ,                                       !- Number of Vertices
  6.64830350875854, 0.965605318546294, 3.22, !- X,Y,Z Vertex 1 {m}
  6.64830350875855, 0.965605318546294, 6.22, !- X,Y,Z Vertex 2 {m}
  6.64830350875857, 6.78277778625488, 6.22, !- X,Y,Z Vertex 3 {m}
  6.64830350875854, 6.78277778625488, 3.22; !- X,Y,Z Vertex 4 {m}

BuildingSurface:Detailed,
  Space 10_SURFACE_4,                     !- Name
  Wall,                                   !- Surface Type
  ASHRAE 189.1-2009 ExtWall SteelFrame ClimateZone 4-8, !- Construction Name
  Space 10_THERMAL_ZONE,                  !- Zone Name
  ,                                       !- Space Name
  Outdoors,                               !- Outside Boundary Condition
  ,                                       !- Outside Boundary Condition Object
  SunExposed,                             !- Sun Exposure
  WindExposed,                            !- Wind Exposure
  ,                                       !- View Factor to Ground
  ,                                       !- Number of Vertices
  11.7761325836182, 8.22715759277344, 6.22, !- X,Y,Z Vertex 1 {m}
  11.7761325836182, 0.0760006010532374, 6.22, !- X,Y,Z Vertex 2 {m}
  11.7761325836182, 0.0760006010532368, 3.22, !- X,Y,Z Vertex 3 {m}
  11.7761325836182, 8.22715759277344, 3.22; !- X,Y,Z Vertex 4 {m}

FenestrationSurface:Detailed,
  Sub Surface 18,                         !- Name
  Window,                                 !- Surface Type
  ASHRAE 189.1-2009 ExtWindow ClimateZone 4-5, !- Construction Name
  Space 10_SURFACE_4,                     !- Building Surface Name
  ,                                       !- Outside Boundary Condition Object
  ,                                       !- View Factor to Ground
  ,                                       !- Frame and Divider Name
  ,                                       !- Multiplier
  ,                                       !- Number of Vertices
  11.7761325836182, 0.101400601053237, 4.88764423167458, !- X,Y,Z Vertex 1 {m}
  11.7761325836182, 0.101400601053237, 3.982, !- X,Y,Z Vertex 2 {m}
  11.7761325836182, 8.20175759277344, 3.982, !- X,Y,Z Vertex 3 {m}
  11.7761325836182, 8.20175759277344, 4.88764423167458; !- X,Y,Z Vertex 4 {m}

BuildingSurface:Detailed,
  Space 10_SURFACE_5,                     !- Name
  Wall,                                   !- Surface Type
  ASHRAE 189.1-2009 ExtWall SteelFrame ClimateZone 4-8, !- Construction Name
  Space 10_THERMAL_ZONE,                  !- Zone Name
  ,                                       !- Space Name
  Outdoors,                               !- Outside Boundary Condition
  ,                                       !- Outside Boundary Condition Object
  SunExposed,                             !- Sun Exposure
  WindExposed,                            !- Wind Exposure
  ,                                       !- View Factor to Ground
  ,                                       !- Number of Vertices
  6.64830350875854, 6.78277778625488, 3.22, !- X,Y,Z Vertex 1 {m}
  6.64830350875857, 6.78277778625488, 6.22, !- X,Y,Z Vertex 2 {m}
  11.7761325836182, 8.22715759277344, 6.22, !- X,Y,Z Vertex 3 {m}
  11.7761325836182, 8.22715759277344, 3.22; !- X,Y,Z Vertex 4 {m}

FenestrationSurface:Detailed,
  Sub Surface 19,                         !- Name
  Window,                                 !- Surface Type
  ASHRAE 189.1-2009 ExtWindow ClimateZone 4-5, !- Construction Name
  Space 10_SURFACE_5,                     !- Building Surface Name
  ,                                       !- Outside Boundary Condition Object
  ,                                       !- View Factor to Ground
  ,                                       !- Frame and Divider Name
  ,                                       !- Multiplier
  ,                                       !- Number of Vertices
  11.7516839579876, 8.22027103305345, 4.89066475689159, !- X,Y,Z Vertex 1 {m}
  11.7516839579876, 8.22027103305345, 3.982, !- X,Y,Z Vertex 2 {m}
  6.6727521343891, 6.78966434597486, 3.982, !- X,Y,Z Vertex 3 {m}
  6.6727521343891, 6.78966434597486, 4.89066475689159; !- X,Y,Z Vertex 4 {m}

BuildingSurface:Detailed,
  Space 10_SURFACE_6,                     !- Name
  Floor,                                  !- Surface Type
  000 Interior Floor,                     !- Construction Name
  Space 10_THERMAL_ZONE,                  !- Zone Name
  ,                                       !- Space Name
  Surface,                                !- Outside Boundary Condition
  Space 5_SURFACE_6,                      !- Outside Boundary Condition Object
  NoSun,                                  !- Sun Exposure
  NoWind,                                 !- Wind Exposure
  ,                                       !- View Factor to Ground
  ,                                       !- Number of Vertices
  6.64830350875854, 0.965605318546294, 3.22, !- X,Y,Z Vertex 1 {m}
  6.64830350875854, 6.78277778625488, 3.22, !- X,Y,Z Vertex 2 {m}
  11.7761325836182, 8.22715759277344, 3.22, !- X,Y,Z Vertex 3 {m}
  11.7761325836182, 0.0760006010532368, 3.22, !- X,Y,Z Vertex 4 {m}
  6.64830350875855, -0.117895506322385, 3.22; !- X,Y,Z Vertex 5 {m}

ZoneControl:Thermostat,
  Space 10_THERMAL_ZONE Thermostat,       !- Name
  Space 10_THERMAL_ZONE,                  !- Zone or ZoneList Name
  Space 10_THERMAL_ZONE Thermostat Schedule, !- Control Type Schedule Name
  ThermostatSetpoint:DualSetpoint,        !- Control 1 Object Type
  Thermostat Setpoint Dual Setpoint 10,   !- Control 1 Name
  ,                                       !- Control 2 Object Type
  ,                                       !- Control 2 Name
  ,                                       !- Control 3 Object Type
  ,                                       !- Control 3 Name
  ,                                       !- Control 4 Object Type
  ,                                       !- Control 4 Name
  0;                                      !- Temperature Difference Between Cutout And Setpoint {deltaC}

Schedule:Compact,
  Space 10_THERMAL_ZONE Thermostat Schedule, !- Name
  Space 10_THERMAL_ZONE Thermostat Schedule Type Limits, !- Schedule Type Limits Name
  Through: 12/31,                         !- Field 1
  For: AllDays,                           !- Field 2
  Until: 24:00,                           !- Field 3
  4;                                      !- Field 4

ScheduleTypeLimits,
  Space 10_THERMAL_ZONE Thermostat Schedule Type Limits, !- Name
  0,                                      !- Lower Limit Value {BasedOnField A3}
  4,                                      !- Upper Limit Value {BasedOnField A3}
  DISCRETE;                               !- Numeric Type

ThermostatSetpoint:DualSetpoint,
  Thermostat Setpoint Dual Setpoint 10,   !- Name
  Schedule Constant 1,                    !- Heating Setpoint Temperature Schedule Name
  Schedule Constant 2;                    !- Cooling Setpoint Temperature Schedule Name

Schedule:Constant,
  Schedule Constant 1,                    !- Name
  Temperature 1,                          !- Schedule Type Limits Name
  20;                                     !- Hourly Value

Schedule:Constant,
  Schedule Constant 2,                    !- Name
  Temperature 1,                          !- Schedule Type Limits Name
  25;                                     !- Hourly Value

HVACTemplate:Zone:IdealLoadsAirSystem,
  Space 10_THERMAL_ZONE,                  !- Zone Name
  ,                                       !- Template Thermostat Name
  ,                                       !- System Availability Schedule Name
  ,                                       !- Maximum Heating Supply Air Temperature {C}
  ,                                       !- Minimum Cooling Supply Air Temperature {C}
  ,                                       !- Maximum Heating Supply Air Humidity Ratio {kgWater/kgDryAir}
  ,                                       !- Minimum Cooling Supply Air Humidity Ratio {kgWater/kgDryAir}
  ,                                       !- Heating Limit
  ,                                       !- Maximum Heating Air Flow Rate {m3/s}
  ,                                       !- Maximum Sensible Heating Capacity {W}
  ,                                       !- Cooling Limit
  ,                                       !- Maximum Cooling Air Flow Rate {m3/s}
  ,                                       !- Maximum Total Cooling Capacity {W}
  ,                                       !- Heating Availability Schedule Name
  ,                                       !- Cooling Availability Schedule Name
  ,                                       !- Dehumidification Control Type
  ,                                       !- Cooling Sensible Heat Ratio {dimensionless}
  ,                                       !- Dehumidification Setpoint {percent}
  ,                                       !- Humidification Control Type
  ,                                       !- Humidification Setpoint {percent}
  ,                                       !- Outdoor Air Method
  ,                                       !- Outdoor Air Flow Rate per Person {m3/s}
  ,                                       !- Outdoor Air Flow Rate per Zone Floor Area {m3/s-m2}
  ,                                       !- Outdoor Air Flow Rate per Zone {m3/s}
  ,                                       !- Design Specification Outdoor Air Object Name
  ;                                       !- Demand Controlled Ventilation Type

Sizing:Zone,
  Space 10_THERMAL_ZONE,                  !- Zone or ZoneList Name
  SupplyAirTemperature,                   !- Zone Cooling Design Supply Air Temperature Input Method
  14,                                     !- Zone Cooling Design Supply Air Temperature {C}
  11.11,                                  !- Zone Cooling Design Supply Air Temperature Difference {deltaC}
  SupplyAirTemperature,                   !- Zone Heating Design Supply Air Temperature Input Method
  40,                                     !- Zone Heating Design Supply Air Temperature {C}
  11.11,                                  !- Zone Heating Design Supply Air Temperature Difference {deltaC}
  0.0085,                                 !- Zone Cooling Design Supply Air Humidity Ratio {kgWater/kgDryAir}
  0.008,                                  !- Zone Heating Design Supply Air Humidity Ratio {kgWater/kgDryAir}
  189.1-2009 - Office - WholeBuilding - Lg Office - CZ4-8 Ventilation, !- Design Specification Outdoor Air Object Name
  ,                                       !- Zone Heating Sizing Factor
  ,                                       !- Zone Cooling Sizing Factor
  DesignDay,                              !- Cooling Design Air Flow Method
  0,                                      !- Cooling Design Air Flow Rate {m3/s}
  0.000762,                               !- Cooling Minimum Air Flow per Zone Floor Area {m3/s-m2}
  0,                                      !- Cooling Minimum Air Flow {m3/s}
  0,                                      !- Cooling Minimum Air Flow Fraction
  DesignDay,                              !- Heating Design Air Flow Method
  0,                                      !- Heating Design Air Flow Rate {m3/s}
  0.002032,                               !- Heating Maximum Air Flow per Zone Floor Area {m3/s-m2}
  0.1415762,                              !- Heating Maximum Air Flow {m3/s}
  0.3,                                    !- Heating Maximum Air Flow Fraction
  ,                                       !- Design Specification Zone Air Distribution Object Name
  No;                                     !- Account for Dedicated Outdoor Air System

DesignSpecification:OutdoorAir,
  189.1-2009 - Office - WholeBuilding - Lg Office - CZ4-8 Ventilation, !- Name
  Sum,                                    !- Outdoor Air Method
  0.009438948864,                         !- Outdoor Air Flow per Person {m3/s-person}
  0,                                      !- Outdoor Air Flow per Zone Floor Area {m3/s-m2}
  0,                                      !- Outdoor Air Flow per Zone {m3/s}
  0;                                      !- Outdoor Air Flow Air Changes per Hour {1/hr}

ZoneVentilation:DesignFlowRate,
  Space 10_THERMAL_ZONE Ventilation per Person, !- Name
  Space 10_THERMAL_ZONE,                  !- Zone or ZoneList Name
  Large Office Bldg Occ,                  !- Schedule Name
  Flow/Person,                            !- Design Flow Rate Calculation Method
  ,                                       !- Design Flow Rate {m3/s}
  ,                                       !- Flow Rate per Zone Floor Area {m3/s-m2}
  0.009438948864,                         !- Flow Rate per Person {m3/s-person}
  ,                                       !- Air Changes per Hour {1/hr}
  ,                                       !- Ventilation Type
  ,                                       !- Fan Pressure Rise {Pa}
  ,                                       !- Fan Total Efficiency
  ,                                       !- Constant Term Coefficient